// physical parameters
Re = 200.0
RHO = 1.0
D   = 0.1
R   = D/2
C = 1.0


PI = 3.14159265359 
U_MAX = 1.0 
MU    = U_MAX*RHO*C/Re

MESH_FILENAME = "airfoil_bc_0.1_TRI3_0.1.e"

AirfoilParams
{
	RHOS = 20.0
	FREQUENCY = 2.0
	THETA_M = PI/18
}


// grid spacing parameters
L = 60 * C                                       // width of computational domain
H = 20 * C
MAX_LEVELS = 5                                 // maximum number of levels in locally refined grid
REF_RATIO  = 4                                 // refinement ratio between levels
N = 32 //64                                        // actual    number of grid cells on coarsest grid level
NFINEST = (REF_RATIO^(MAX_LEVELS - 1))*N       // effective number of grid cells on finest   grid level
DX0 = H/N                                      // mesh width on coarsest grid level
DX  = H/NFINEST                                // mesh width on finest   grid level
MFAC = 2.0                                     // ratio of Lagrangian mesh width to Cartesian mesh width
ELEM_TYPE = "TRI3"                             // type of element to use for structure discretization


// solver parameters
IB_DELTA_FUNCTION          = "IB_3"            // the type of smoothed delta function to use for Lagrangian-Eulerian interaction
SPLIT_FORCES   = TRUE
USE_PRESSURE_JUMP_CONDITIONS        = TRUE           // whether to impose pressure jumps at fluid-structure interfaces
USE_VELOCITY_JUMP_CONDITIONS        = TRUE           // whether to impose pressure jumps at fluid-structure interfaces
TRACTION_ACTIVATION_TIME  = 0.0
USE_L2_LAGRANGE_FAMILY = TRUE
COMPUTE_FLUID_TRACTION   = TRUE
WSS_CALC_WIDTH 			   = 1.03
P_CALC_WIDTH 			   = 1.25
USE_CONSISTENT_MASS_MATRIX = TRUE              // whether to use a consistent or lumped mass matrix
IB_POINT_DENSITY           = 4.0                    // approximate density of IB quadrature points for Lagrangian-Eulerian interaction
SOLVER_TYPE                = "STAGGERED"       // the fluid solver to use (STAGGERED or COLLOCATED)
START_TIME                 = 0.0e0             // initial simulation time
END_TIME                   = 200.0             // final simulation time
GROW_DT                    = 2.0e0             // growth factor for timesteps
CONVECTIVE_TS_TYPE         = "ADAMS_BASHFORTH" // convective time stepping type
CONVECTIVE_OP_TYPE         = "STABILIZED_PPM"              // convective differencing discretization type
CONVECTIVE_FORM            = "ADVECTIVE"       // how to compute the convective terms
NORMALIZE_PRESSURE         = FALSE             // whether to explicitly force the pressure to have mean zero
CFL_MAX                    = 0.6               // maximum CFL number
DT                         = 0.05*CFL_MAX*DX   // maximum timestep size
ERROR_ON_DT_CHANGE         = TRUE              // whether to emit an error message if the time step size changes
VORTICITY_TAGGING          = TRUE              // whether to tag cells for refinement based on vorticity thresholds
TAG_BUFFER                 = 2                // size of tag buffer used by grid generation algorithm
REGRID_CFL_INTERVAL        = 0.5               // regrid whenever any material point could have moved 0.5 meshwidths since previous regrid
OUTPUT_U                   = TRUE
OUTPUT_P                   = TRUE
OUTPUT_F                   = TRUE
OUTPUT_OMEGA               = TRUE
OUTPUT_DIV_U               = TRUE
ENABLE_LOGGING             = TRUE
INITIAL_THETA = 180.0
NUM_CYCLES = 1

// option to use discontinuous L2_Lagrange family for geometries with sharp features
USE_DISCON_ELEMS = TRUE
USE_DIRECT_FORCING = FALSE

// model parameters

KAPPA_S = 9.5e4 
ETA_S = 0.0 

PROJECTION_METHOD_TYPE = "PRESSURE_UPDATE"
SECOND_ORDER_PRESSURE_UPDATE = TRUE

VelocityBcCoefs_0 {
   t_half = 0.5
   tau = 0.25
   u   = U_MAX

   acoef_function_0 = "1.0"
   acoef_function_1 = "1.0"
   acoef_function_2 = "1.0"
   acoef_function_3 = "1.0"

   bcoef_function_0 = "0.0"
   bcoef_function_1 = "0.0"
   bcoef_function_2 = "0.0"
   bcoef_function_3 = "0.0"

   gcoef_function_0 = "0.0" 
   gcoef_function_1 = "0.0"
   gcoef_function_2 = "0.0"
   gcoef_function_3 = "0.0" 
}

VelocityBcCoefs_1 {
  L = L
   acoef_function_0 = "1.0"
   acoef_function_1 = "1.0"
   acoef_function_2 = "1.0"
   acoef_function_3 = "1.0"

   bcoef_function_0 = "0.0"
   bcoef_function_1 = "0.0"
   bcoef_function_2 = "0.0"
   bcoef_function_3 = "0.0"

   gcoef_function_0 = "0.0"
   gcoef_function_1 = "0.0"
   gcoef_function_2 = "0.0"
   gcoef_function_3 = "0.0"
}

IBHierarchyIntegrator {
   start_time          = START_TIME
   end_time            = END_TIME
   grow_dt             = GROW_DT
   regrid_cfl_interval = REGRID_CFL_INTERVAL
   dt_max              = DT
   error_on_dt_change  = ERROR_ON_DT_CHANGE
   enable_logging      = ENABLE_LOGGING
    num_cycles = NUM_CYCLES
}

IIMethod {
   IB_delta_fcn                = IB_DELTA_FUNCTION
   split_forces                = SPLIT_FORCES
   use_pressure_jump_conditions   = USE_PRESSURE_JUMP_CONDITIONS
   use_velocity_jump_conditions   = USE_VELOCITY_JUMP_CONDITIONS
   use_consistent_mass_matrix  = USE_CONSISTENT_MASS_MATRIX
   IB_point_density            = IB_POINT_DENSITY
   p_calc_width				   = P_CALC_WIDTH
   wss_calc_width			  = WSS_CALC_WIDTH
   use_direct_forcing = USE_DIRECT_FORCING
   compute_fluid_traction     = COMPUTE_FLUID_TRACTION
   traction_activation_time = TRACTION_ACTIVATION_TIME
   min_ghost_cell_width = 6
   pressure_jump_fe_family = "L2_LAGRANGE"
   velocity_jump_fe_family = "L2_LAGRANGE"
   wss_fe_family = "L2_LAGRANGE"
   tau_fe_family = "L2_LAGRANGE"
   
   exterior_calc_coef = 1.0
   
}


INSStaggeredHierarchyIntegrator {
   mu                            = MU
   rho                           = RHO
   start_time                    = START_TIME
   end_time                      = END_TIME
   grow_dt                       = GROW_DT
   convective_time_stepping_type = CONVECTIVE_TS_TYPE
   convective_op_type            = CONVECTIVE_OP_TYPE
   convective_difference_form    = CONVECTIVE_FORM
   normalize_pressure            = NORMALIZE_PRESSURE
   cfl                           = CFL_MAX
   dt_max                        = DT
   using_vorticity_tagging       = VORTICITY_TAGGING
   vorticity_abs_thresh          = 0.125,0.25,0.5,1,2
   tag_buffer                    = TAG_BUFFER
   output_U                      = OUTPUT_U
   output_P                      = OUTPUT_P
   output_F                      = OUTPUT_F
   output_Omega                  = OUTPUT_OMEGA
   output_Div_U                  = OUTPUT_DIV_U
   enable_logging                = ENABLE_LOGGING
   num_cycles = NUM_CYCLES

  convective_op_db {
      // settings for STABILIZED_PPM convective operator
      width_1 = 2.0*DX
   }
}

Main {
   solver_type = SOLVER_TYPE

// log file parameters
   log_file_name               = "II2d_LDT.log"
   log_all_nodes               = FALSE

// visualization dump parameters
   viz_writer                  = "VisIt","ExodusII"
   viz_dump_interval           = int(0.1/DT)
   viz_dump_dirname            = "viz_II2d_LDT"
   visit_number_procs_per_file = 1

// restart dump parameters
   restart_dump_interval       = 0
   restart_dump_dirname        = "restart_II2d"

// hierarchy data dump parameters
   data_dump_interval          = 0
   data_dump_dirname           = "hier_data_II2d"

// timer dump parameters
   timer_dump_interval         = 0
}

CartesianGeometry {
   domain_boxes = [ (0,0),(int(L/H)*N - 1,N - 1) ]
   x_lo = -52*C,-0.5*H
   x_up =  8*C, 0.5*H
   periodic_dimension = 1,1
}

GriddingAlgorithm {
   max_levels = MAX_LEVELS
   ratio_to_coarser {
      level_1 = REF_RATIO,REF_RATIO
      level_2 = REF_RATIO,REF_RATIO
      level_3 = REF_RATIO,REF_RATIO
      level_4 = REF_RATIO,REF_RATIO
      level_5 = REF_RATIO,REF_RATIO
      level_6 = REF_RATIO,REF_RATIO
      level_7 = REF_RATIO,REF_RATIO
   }
   largest_patch_size {
      level_0 = 512,512  // all finer levels will use same values as level_0
   }
   smallest_patch_size {
      level_0 = 16, 16  // all finer levels will use same values as level_0
   }
   efficiency_tolerance = 0.80e0  // min % of tag cells in new patch level
   combine_efficiency   = 0.80e0  // chop box if sum of volumes of smaller boxes < efficiency * vol of large box
   allow_patches_smaller_than_minimum_size_to_prevent_overlaps = TRUE
}

StandardTagAndInitialize {
   tagging_method = "GRADIENT_DETECTOR"
}

LoadBalancer {
   bin_pack_method     = "SPATIAL"
   max_workload_factor = 1
}

TimerManager{
   print_exclusive = FALSE
   print_total = TRUE
   print_threshold = 0.1

   timer_list = "IBAMR::*::*","IBTK::*::*","*::*::*"
}
